 &time_control
 run_days                            = 2,
 run_hours                           = 0,
 run_minutes                         = 0,
 run_seconds                         = 0,
 start_year                          = 2022,   2022,   2022,   2022,   2022,
 start_month                         = 04,     04,     04,     04,     04,
 start_day                           = 03,     03,     03,     03,     03,
 start_hour                          = 18,     18,     18,     18,     18,
 end_year                            = 2022,   2022,   2022,   2022,   2022,
 end_month                           = 04,     04,     04,     04,     04,
 end_day                             = 05,     05,     05,     05,     05,
 end_hour                            = 18,     18,     18,     18,     18,
 interval_seconds                    = 3600
 input_from_file                     = .true., .true., .true., .true., .true.,
 history_interval                    = 60,     60,     30,     5,     5,
 frames_per_outfile                  = 12,     12,     12,     4,     4,
 restart                             = .false.,
 restart_interval                    = 60000,
 io_form_history                     = 2,
 io_form_restart                     = 2,
 io_form_input                       = 2,
 io_form_boundary                    = 2,
 write_hist_at_0h_rst               = .false.,
 /

 &domains
 time_step                           = 75,
 reasonable_time_step_ratio          = 10,
 parent_time_step_ratio              = 1,        3,      5,      5,      8, 
 max_dom                             = 5,
 e_we                                = 196,    196,    181,    526,    396,
 e_sn                                = 196,    196,    181,    336,    256,
 e_vert                              = 77,     77,     77,     91,     109,
 vert_refine_method                  = 0,      0,      0,      2,      2,
 rebalance                           = 1,
 eta_levels(1:77)                    = 1.0000,0.9957,0.9911,0.9861,0.9807,0.9750,0.9688,0.9622,0.9551,0.9475,0.9393,0.9305,0.9212,0.9112,0.9004,0.8890,0.8767,0.8637,0.8498,0.8350,0.8192,0.8024,0.7847,0.7658,0.7459,0.7248,0.7026,0.6792,0.6547,0.6289,0.6020,0.5740,0.5470,0.5209,0.4958,0.4715,0.4481,0.4256,0.4039,0.3830,0.3629,0.3436,0.3250,0.3071,0.2899,0.2733,0.2575,0.2422,0.2276,0.2135,0.2001,0.1872,0.1748,0.1629,0.1516,0.1407,0.1304,0.1204,0.1110,0.1019,0.0932,0.0850,0.0771,0.0696,0.0625,0.0557,0.0492,0.0430,0.0372,0.0316,0.0263,0.0213,0.0166,0.0121,0.0078,0.0038,0.0000,
 eta_levels(78:154)                  = 1.0000,0.9957,0.9911,0.9861,0.9807,0.9750,0.9688,0.9622,0.9551,0.9475,0.9393,0.9305,0.9212,0.9112,0.9004,0.8890,0.8767,0.8637,0.8498,0.8350,0.8192,0.8024,0.7847,0.7658,0.7459,0.7248,0.7026,0.6792,0.6547,0.6289,0.6020,0.5740,0.5470,0.5209,0.4958,0.4715,0.4481,0.4256,0.4039,0.3830,0.3629,0.3436,0.3250,0.3071,0.2899,0.2733,0.2575,0.2422,0.2276,0.2135,0.2001,0.1872,0.1748,0.1629,0.1516,0.1407,0.1304,0.1204,0.1110,0.1019,0.0932,0.0850,0.0771,0.0696,0.0625,0.0557,0.0492,0.0430,0.0372,0.0316,0.0263,0.0213,0.0166,0.0121,0.0078,0.0038,0.0000,
 eta_levels(155:231)                 = 1.0000,0.9957,0.9911,0.9861,0.9807,0.9750,0.9688,0.9622,0.9551,0.9475,0.9393,0.9305,0.9212,0.9112,0.9004,0.8890,0.8767,0.8637,0.8498,0.8350,0.8192,0.8024,0.7847,0.7658,0.7459,0.7248,0.7026,0.6792,0.6547,0.6289,0.6020,0.5740,0.5470,0.5209,0.4958,0.4715,0.4481,0.4256,0.4039,0.3830,0.3629,0.3436,0.3250,0.3071,0.2899,0.2733,0.2575,0.2422,0.2276,0.2135,0.2001,0.1872,0.1748,0.1629,0.1516,0.1407,0.1304,0.1204,0.1110,0.1019,0.0932,0.0850,0.0771,0.0696,0.0625,0.0557,0.0492,0.0430,0.0372,0.0316,0.0263,0.0213,0.0166,0.0121,0.0078,0.0038,0.0000,
 eta_levels(232:322)                 = 1.0000,0.9971,0.9941,0.9909,0.9876,0.9840,0.9803,0.9764,0.9723,0.9680,0.9635,0.9587,0.9537,0.9484,0.9429,0.9371,0.9310,0.9246,0.9178,0.9108,0.9034,0.8956,0.8875,0.8790,0.8701,0.8608,0.8510,0.8408,0.8302,0.8190,0.8074,0.7953,0.7826,0.7694,0.7557,0.7414,0.7266,0.7112,0.6952,0.6786,0.6615,0.6437,0.6254,0.6065,0.5869,0.5669,0.5463,0.5251,0.5035,0.4813,0.4588,0.4356,0.4133,0.3918,0.3712,0.3513,0.3322,0.3138,0.2961,0.2792,0.2629,0.2472,0.2322,0.2178,0.2040,0.1908,0.1782,0.1660,0.1544,0.1433,0.1327,0.1226,0.1129,0.1036,0.0948,0.0864,0.0784,0.0707,0.0634,0.0565,0.0499,0.0437,0.0377,0.0321,0.0267,0.0216,0.0168,0.0122,0.0079,0.0039,0.0000,
 eta_levels(323:431)                 = 1.0000,0.9986,0.9971,0.9955,0.9938,0.9921,0.9903,0.9884,0.9864,0.9843,0.9821,0.9798,0.9774,0.9749,0.9722,0.9695,0.9666,0.9635,0.9604,0.9571,0.9536,0.9500,0.9462,0.9422,0.9380,0.9337,0.9291,0.9244,0.9194,0.9142,0.9088,0.9031,0.8972,0.8911,0.8846,0.8779,0.8709,0.8636,0.8560,0.8480,0.8397,0.8311,0.8221,0.8128,0.8031,0.7930,0.7825,0.7716,0.7603,0.7486,0.7365,0.7239,0.7108,0.6973,0.6834,0.6690,0.6541,0.6387,0.6229,0.6066,0.5899,0.5727,0.5551,0.5370,0.5185,0.4996,0.4803,0.4607,0.4407,0.4204,0.3999,0.3792,0.3594,0.3402,0.3218,0.3042,0.2872,0.2708,0.2551,0.2400,0.2256,0.2117,0.1983,0.1856,0.1733,0.1616,0.1504,0.1396,0.1293,0.1195,0.1101,0.1011,0.0926,0.0844,0.0766,0.0691,0.0620,0.0553,0.0489,0.0428,0.0369,0.0314,0.0262,0.0212,0.0165,0.0120,0.0078,0.0038,0.0000,
 p_top_requested                     = 5000,
 num_metgrid_levels                  = 38,
 num_metgrid_soil_levels             = 4,
 dx                                  = 11250,
 dy                                  = 11250,
 grid_id                             = 1,      2,      3,      4,      5,
 parent_id                           = 1,      1,      2,      3,      4,
 i_parent_start                      = 1,      65,     85,     35,     200,
 j_parent_start                      = 1,      65,     90,     25,     135,
 parent_grid_ratio                   = 1,      3,      5,      5,      5,
 feedback                            = 0,
 max_ts_locs                         = 35,
 max_ts_level                        = 100,
 /

 &physics
 mp_physics                          = 8,      8,      8,      8,      8,
 cu_physics                          = 1,      0,      0,      0,      0,
 ra_lw_physics                       = 1,      1,      1,      1,      1,
 ra_sw_physics                       = 1,      1,      1,      1,      1,
 bl_pbl_physics                      = 1,      1,      1,      0,      0,
 sf_sfclay_physics                   = 1,      1,      1,      1,      1,
 sf_surface_physics                  = 2,      2,      2,      2,      2,
 radt                                = 1,      1,      1,      1,      1,
 bldt                                = 0,      0,      0,      0,      0,  
 cudt                                = 0,      0,      0,      0,      0,
 num_land_cat                        = 21,
 sf_urban_physics                    = 0,      0,      0,      0,      0,
 ghg_input                           = 1,
 /

 &fdda
 /

 &dynamics
 hybrid_opt                          = 2, 
 w_damping                           = 1,
 diff_opt                            = 2,      2,      2,      2,      2,
 km_opt                              = 4,      4,      4,      2,      2,
 sfs_opt                             = 0,      0,      0,      0,      1,
 diff_6th_opt                        = 2,      2,      2,      2,      2,
 diff_6th_factor                     = 0.12,   0.18,   0.24,   0.30,   0.36,
 base_temp                           = 290.
 damp_opt                            = 3,      
 zdamp                               = 5000.,  5000.,  5000.,  5000.,  5000.,
 dampcoef                            = 0.2,    0.2,    0.2,    0.4,    0.8,
 khdif                               = 0,      0,      0,      0,      0,
 kvdif                               = 0,      0,      0,      0,      0,
 non_hydrostatic                     = .true., .true., .true., .true., .true.,
 moist_adv_opt                       = 1,      1,      1,      1,      1,
 scalar_adv_opt                      = 1,      1,      1,      1,      1,
 gwd_opt                             = 1,      1,      1,      1,      1,
 epssm                               = 0.1,    0.1,    0.1,    0.9,    0.9,
 /

 &bdy_control
 spec_bdy_width                      = 5,
 specified                           = .true.,  .false., .false., .false., .false.,
 nested                              = .false., .true.,  .true.,  .true.,  .true.,
 /

 &grib2
 /

 &namelist_quilt
 nio_tasks_per_group = 0,
 nio_groups = 1,
 /
