 &time_control
 run_days                            = 2,
 run_hours                           = 0,
 run_minutes                         = 0,
 run_seconds                         = 0,
 start_year                          = 2022,   2022,   2022,   2022,   2022,
 start_month                         = 05,     05,     05,     05,     05,
 start_day                           = 07,     07,     07,     07,     07,
 start_hour                          = 18,     18,     18,     18,     18,
 end_year                            = 2022,   2022,   2022,   2022,   2022,
 end_month                           = 05,     05,     05,     05,     05,
 end_day                             = 09,     09,     09,     09,     09,
 end_hour                            = 18,     18,     18,     18,     18,
 interval_seconds                    = 3600
 input_from_file                     = .true., .true., .true., .true., .true.,
 history_interval                    = 60,     60,     30,     5,     5,
 frames_per_outfile                  = 12,     12,     12,     12,    12,
 restart                             = .false.,
 restart_interval                    = 60000,
 io_form_history                     = 2,
 io_form_restart                     = 2,
 io_form_input                       = 2,
 io_form_boundary                    = 2,
 write_hist_at_0h_rst               = .false.,
 /

 &domains
 time_step                           = 75,
 reasonable_time_step_ratio          = 10,
 parent_time_step_ratio              = 1,        3,      5,      5,      8, 
 max_dom                             = 5,
 e_we                                = 196,    196,    181,    486,    396,
 e_sn                                = 196,    196,    181,    256,    346,
 e_vert                              = 77,     77,     77,     77,     77,
 vert_refine_method                  = 0,      0,      0,      2,      2,
 rebalance                           = 1,
 eta_levels(1:77)                    = 1.0000,0.9957,0.9911,0.9861,0.9807,0.9750,0.9688,0.9622,0.9551,0.9475,0.9393,0.9305,0.9212,0.9112,0.9004,0.8890,0.8767,0.8637,0.8498,0.8350,0.8192,0.8024,0.7847,0.7658,0.7459,0.7248,0.7026,0.6792,0.6547,0.6289,0.6020,0.5740,0.5470,0.5209,0.4958,0.4715,0.4481,0.4256,0.4039,0.3830,0.3629,0.3436,0.3250,0.3071,0.2899,0.2733,0.2575,0.2422,0.2276,0.2135,0.2001,0.1872,0.1748,0.1629,0.1516,0.1407,0.1304,0.1204,0.1110,0.1019,0.0932,0.0850,0.0771,0.0696,0.0625,0.0557,0.0492,0.0430,0.0372,0.0316,0.0263,0.0213,0.0166,0.0121,0.0078,0.0038,0.0000,
 eta_levels(78:154)                  = 1.0000,0.9957,0.9911,0.9861,0.9807,0.9750,0.9688,0.9622,0.9551,0.9475,0.9393,0.9305,0.9212,0.9112,0.9004,0.8890,0.8767,0.8637,0.8498,0.8350,0.8192,0.8024,0.7847,0.7658,0.7459,0.7248,0.7026,0.6792,0.6547,0.6289,0.6020,0.5740,0.5470,0.5209,0.4958,0.4715,0.4481,0.4256,0.4039,0.3830,0.3629,0.3436,0.3250,0.3071,0.2899,0.2733,0.2575,0.2422,0.2276,0.2135,0.2001,0.1872,0.1748,0.1629,0.1516,0.1407,0.1304,0.1204,0.1110,0.1019,0.0932,0.0850,0.0771,0.0696,0.0625,0.0557,0.0492,0.0430,0.0372,0.0316,0.0263,0.0213,0.0166,0.0121,0.0078,0.0038,0.0000,
 eta_levels(155:231)                 = 1.0000,0.9957,0.9911,0.9861,0.9807,0.9750,0.9688,0.9622,0.9551,0.9475,0.9393,0.9305,0.9212,0.9112,0.9004,0.8890,0.8767,0.8637,0.8498,0.8350,0.8192,0.8024,0.7847,0.7658,0.7459,0.7248,0.7026,0.6792,0.6547,0.6289,0.6020,0.5740,0.5470,0.5209,0.4958,0.4715,0.4481,0.4256,0.4039,0.3830,0.3629,0.3436,0.3250,0.3071,0.2899,0.2733,0.2575,0.2422,0.2276,0.2135,0.2001,0.1872,0.1748,0.1629,0.1516,0.1407,0.1304,0.1204,0.1110,0.1019,0.0932,0.0850,0.0771,0.0696,0.0625,0.0557,0.0492,0.0430,0.0372,0.0316,0.0263,0.0213,0.0166,0.0121,0.0078,0.0038,0.0000,
 eta_levels(232:308)                 = 1.0000,0.9957,0.9911,0.9861,0.9807,0.9750,0.9688,0.9622,0.9551,0.9475,0.9393,0.9305,0.9212,0.9112,0.9004,0.8890,0.8767,0.8637,0.8498,0.8350,0.8192,0.8024,0.7847,0.7658,0.7459,0.7248,0.7026,0.6792,0.6547,0.6289,0.6020,0.5740,0.5470,0.5209,0.4958,0.4715,0.4481,0.4256,0.4039,0.3830,0.3629,0.3436,0.3250,0.3071,0.2899,0.2733,0.2575,0.2422,0.2276,0.2135,0.2001,0.1872,0.1748,0.1629,0.1516,0.1407,0.1304,0.1204,0.1110,0.1019,0.0932,0.0850,0.0771,0.0696,0.0625,0.0557,0.0492,0.0430,0.0372,0.0316,0.0263,0.0213,0.0166,0.0121,0.0078,0.0038,0.0000,
 eta_levels(309:385)                 = 1.0000,0.9957,0.9911,0.9861,0.9807,0.9750,0.9688,0.9622,0.9551,0.9475,0.9393,0.9305,0.9212,0.9112,0.9004,0.8890,0.8767,0.8637,0.8498,0.8350,0.8192,0.8024,0.7847,0.7658,0.7459,0.7248,0.7026,0.6792,0.6547,0.6289,0.6020,0.5740,0.5470,0.5209,0.4958,0.4715,0.4481,0.4256,0.4039,0.3830,0.3629,0.3436,0.3250,0.3071,0.2899,0.2733,0.2575,0.2422,0.2276,0.2135,0.2001,0.1872,0.1748,0.1629,0.1516,0.1407,0.1304,0.1204,0.1110,0.1019,0.0932,0.0850,0.0771,0.0696,0.0625,0.0557,0.0492,0.0430,0.0372,0.0316,0.0263,0.0213,0.0166,0.0121,0.0078,0.0038,0.0000,
 p_top_requested                     = 5000,
 num_metgrid_levels                  = 38,
 num_metgrid_soil_levels             = 4,
 dx                                  = 11250,
 dy                                  = 11250,
 grid_id                             = 1,      2,      3,      4,      5,
 parent_id                           = 1,      1,      2,      3,      4,
 i_parent_start                      = 1,      65,     75,     35,     200,
 j_parent_start                      = 1,      65,     93,     20,     115,
 parent_grid_ratio                   = 1,      3,      5,      5,      5,
 feedback                            = 0,
 max_ts_locs                         = 30,       
 max_ts_level                        = 100,    
 /

 &physics
 mp_physics                          = 8,      8,      8,      8,      8,
 cu_physics                          = 1,      0,      0,      0,      0,
 ra_lw_physics                       = 1,      1,      1,      1,      1,
 ra_sw_physics                       = 1,      1,      1,      1,      1,
 bl_pbl_physics                      = 1,      1,      1,      0,      0,
 sf_sfclay_physics                   = 1,      1,      1,      1,      1,
 sf_surface_physics                  = 2,      2,      2,      2,      2,
 radt                                = 1,      1,      1,      1,      1,
 bldt                                = 0,      0,      0,      0,      0,  
 cudt                                = 0,      0,      0,      0,      0,
 num_land_cat                        = 21,
 sf_urban_physics                    = 0,      0,      0,      0,      0,
 ghg_input                           = 1,
 /

 &fdda
 /

 &dynamics
 hybrid_opt                          = 2, 
 w_damping                           = 1,
 diff_opt                            = 2,      2,      2,      2,      2,
 km_opt                              = 4,      4,      4,      2,      2,
 sfs_opt                             = 0,      0,      0,      1,      1,
 diff_6th_opt                        = 2,      2,      2,      2,      2,
 diff_6th_factor                     = 0.12,   0.18,   0.24,   0.30,   0.36,
 base_temp                           = 290.
 damp_opt                            = 3,      
 zdamp                               = 5000.,  5000.,  5000.,  5000.,  5000.,
 dampcoef                            = 0.2,    0.2,    0.2,    0.8,    0.8,
 khdif                               = 0,      0,      0,      0,      0,
 kvdif                               = 0,      0,      0,      0,      0,
 non_hydrostatic                     = .true., .true., .true., .true., .true.,
 moist_adv_opt                       = 1,      1,      1,      1,      1,
 scalar_adv_opt                      = 1,      1,      1,      1,      1,
 gwd_opt                             = 1,      1,      1,      1,      1,
 epssm                               = 0.1,    0.1,    0.1,    0.9,    0.9,
 /

 &bdy_control
 spec_bdy_width                      = 5,
 specified                           = .true.,  .false., .false., .false., .false.,
 nested                              = .false., .true.,  .true.,  .true.,  .true.,
 /

 &grib2
 /

 &namelist_quilt
 nio_tasks_per_group = 0,
 nio_groups = 1,
 / 
